# created with PyMOL 2.3.5
@<TRIPOS>MOLECULE
chlorophyll_reordered_symm_H
94 103 1                
SMALL
USER_CHARGES
@<TRIPOS>ATOM
1	   N	0.057	-0.028	0.005	N.3	1	CHL1	0.000	
2	   C	1.514	-0.028	0.005	C.3	1	CHL1	0.000	
3	   C	2.070	1.391	0.005	C.3	1	CHL1	0.000	
4	   O	3.128	1.639	0.591	 O	1	CHL1	0.000	
5	   C	2.035	-0.806	-1.202	C.3	1	CHL1	0.000	
6	   C	3.462	-0.512	-1.546	C.2	1	CHL1	0.000	
7	   C	4.617	-0.886	-0.947	C.2	1	CHL1	0.000	
8	   N	3.826	0.270	-2.622	N.2	1	CHL1	0.000	
9	   C	5.143	0.364	-2.669	C.2	1	CHL1	0.000	
10	   N	5.647	-0.336	-1.669	N.2	1	CHL1	0.000	
11	  MG	7.703	-0.676	-1.325	Mg	1	CHL1	0.000	
12	   N	7.802	-2.816	-1.710	N.3	1	CHL1	0.000	
13	   C	7.958	-3.413	-2.951	C.3	1	CHL1	0.000	
14	   C	8.300	-2.731	-4.097	C.3	1	CHL1	0.000	
15	   C	8.500	-1.357	-4.131	C.2	1	CHL1	0.000	
16	   N	8.459	-0.364	-3.193	N.2	1	CHL1	0.000	
17	   C	8.762	0.772	-3.841	C.2	1	CHL1	0.000	
18	   C	8.824	2.018	-3.175	C.3	1	CHL1	0.000	
19	   C	8.635	2.252	-1.800	C.2	1	CHL1	0.000	
20	   N	8.342	1.282	-0.857	N.2	1	CHL1	0.000	
21	   C	8.258	1.879	0.377	C.2	1	CHL1	0.000	
22	   C	7.979	1.214	1.610	C.3	1	CHL1	0.000	
23	   C	7.728	-0.145	1.774	C.2	1	CHL1	0.000	
24	   N	7.685	-1.066	0.738	N.2	1	CHL1	0.000	
25	   C	7.413	-2.283	1.257	C.2	1	CHL1	0.000	
26	   C	7.303	-3.434	0.579	C.3	1	CHL1	0.000	
27	   C	7.492	-3.711	-0.775	C.3	1	CHL1	0.000	
28	   C	7.753	-4.903	-2.836	C.3	1	CHL1	0.000	
29	   C	7.408	-5.097	-1.360	C.3	1	CHL1	0.000	
30	   C	5.979	-5.633	-1.223	C.3	1	CHL1	0.000	
31	   C	9.063	-5.677	-3.225	C.3	1	CHL1	0.000	
32	   C	9.946	-6.101	-2.119	C.3	1	CHL1	0.000	
33	   C	11.374	-6.012	-2.429	C.2	1	CHL1	0.000	
34	   O	11.941	-4.954	-2.282	O.co2	1	CHL1	0.000	
35	   O	12.073	-7.078	-2.847	O.co2	1	CHL1	0.000	
36	   C	9.033	0.535	-5.217	C.2	1	CHL1	0.000	
37	   C	8.855	-0.843	-5.383	C.2	1	CHL1	0.000	
38	   C	9.426	1.557	-6.303	C.3	1	CHL1	0.000	
39	   C	8.839	-1.934	-6.324	C.2	1	CHL1	0.000	
40	   O	9.094	-1.970	-7.539	O.2	1	CHL1	0.000	
41	   C	8.360	-3.197	-5.558	C.3	1	CHL1	0.000	
42	   C	6.959	-3.567	-6.089	C.2	1	CHL1	0.000	
43	   O	5.995	-2.892	-5.809	O.co2	1	CHL1	0.000	
44	   O	6.845	-4.621	-6.871	O.3	1	CHL1	0.000	
45	   C	5.769	-4.705	-7.821	C.3	1	CHL1	0.000	
46	   C	8.503	3.307	0.222	C.2	1	CHL1	0.000	
47	   C	8.732	3.548	-1.116	C.2	1	CHL1	0.000	
48	   C	8.538	4.308	1.350	C.3	1	CHL1	0.000	
49	   C	8.988	4.865	-1.798	C.3	1	CHL1	0.000	
50	   C	10.436	4.937	-2.324	C.3	1	CHL1	0.000	
51	   C	7.347	-2.187	2.705	C.2	1	CHL1	0.000	
52	   C	7.551	-0.889	3.044	C.2	1	CHL1	0.000	
53	   C	7.156	-3.371	3.615	C.3	1	CHL1	0.000	
54	   C	7.679	-0.602	4.511	C.3	1	CHL1	0.000	
55	   C	7.535	0.547	5.026	C.3	1	CHL1	0.000	
56	   H	1.855	-0.516	0.918	 H	1	CHL1	0.000	
57	   H	1.435	-0.499	-2.059	 H	1	CHL1	0.000	
58	   H	1.946	-1.871	-0.989	 H	1	CHL1	0.000	
59	   H	4.712	-1.508	-0.057	 H	1	CHL1	0.000	
60	   H	3.186	0.703	-3.273	 H	1	CHL1	0.000	
61	   H	5.717	0.924	-3.408	 H	1	CHL1	0.000	
62	   H	8.837	2.880	-3.843	 H	1	CHL1	0.000	
63	   H	7.940	1.883	2.469	 H	1	CHL1	0.000	
64	   H	6.994	-4.316	1.140	 H	1	CHL1	0.000	
65	   H	8.023	-1.531	4.965	 H	1	CHL1	0.000	
66	   H	7.289	1.407	4.403	 H	1	CHL1	0.000	
67	   H	7.643	0.690	6.101	 H	1	CHL1	0.000	
68	   H	6.980	-5.284	-3.504	 H	1	CHL1	0.000	
69	   H	8.070	-5.807	-0.864	 H	1	CHL1	0.000	
70	   H	5.280	-4.918	-1.659	 H	1	CHL1	0.000	
71	   H	5.896	-6.585	-1.746	 H	1	CHL1	0.000	
72	   H	5.743	-5.775	-0.169	 H	1	CHL1	0.000	
73	   H	8.767	-6.572	-3.771	 H	1	CHL1	0.000	
74	   H	9.654	-4.962	-3.798	 H	1	CHL1	0.000	
75	   H	9.742	-5.469	-1.255	 H	1	CHL1	0.000	
76	   H	9.730	-7.152	-1.929	 H	1	CHL1	0.000	
77	   H	8.996	1.257	-7.259	 H	1	CHL1	0.000	
78	   H	10.511	1.595	-6.391	 H	1	CHL1	0.000	
79	   H	9.050	2.542	-6.029	 H	1	CHL1	0.000	
80	   H	8.997	-4.074	-5.673	 H	1	CHL1	0.000	
81	   H	4.944	-4.074	-7.490	 H	1	CHL1	0.000	
82	   H	6.117	-4.365	-8.796	 H	1	CHL1	0.000	
83	   H	5.429	-5.737	-7.895	 H	1	CHL1	0.000	
84	   H	9.256	5.094	1.117	 H	1	CHL1	0.000	
85	   H	7.549	4.745	1.479	 H	1	CHL1	0.000	
86	   H	8.836	3.806	2.270	 H	1	CHL1	0.000	
87	   H	8.298	4.975	-2.635	 H	1	CHL1	0.000	
88	   H	8.839	5.667	-1.076	 H	1	CHL1	0.000	
89	   H	10.602	4.135	-3.043	 H	1	CHL1	0.000	
90	   H	11.130	4.828	-1.491	 H	1	CHL1	0.000	
91	   H	10.600	5.900	-2.810	 H	1	CHL1	0.000	
92	   H	6.659	-3.051	4.530	 H	1	CHL1	0.000	
93	   H	6.546	-4.122	3.113	 H	1	CHL1	0.000	
94	   H	8.128	-3.801	3.860	 H	1	CHL1	0.000	
@<TRIPOS>BOND
1 1 2 1
2 2 3 1
3 2 5 1
4 2 56 1
5 3 4 1
6 5 6 1
7 5 57 1
8 5 58 1
9 6 7 ar
10 6 8 ar
11 7 10 ar
12 7 59 1
13 8 9 ar
14 8 60 1
15 9 10 ar
16 9 61 1
17 10 11 1
18 11 12 1
19 11 16 1
20 11 20 1
21 11 24 1
22 12 13 1
23 12 27 1
24 13 14 1
25 13 28 1
26 14 15 1
27 14 41 1
28 15 16 ar
29 15 37 ar
30 16 17 ar
31 17 18 1
32 17 36 ar
33 18 19 1
34 18 62 1
35 19 20 ar
36 19 47 ar
37 20 21 ar
38 21 22 1
39 21 46 ar
40 22 23 1
41 22 63 1
42 23 24 ar
43 23 52 ar
44 24 25 ar
45 25 26 1
46 25 51 ar
47 26 27 1
48 26 64 1
49 27 29 1
50 28 29 1
51 28 31 1
52 28 68 1
53 29 30 1
54 29 69 1
55 30 70 1
56 30 71 1
57 30 72 1
58 31 32 1
59 31 73 1
60 31 74 1
61 32 33 1
62 32 75 1
63 32 76 1
64 33 34 ar
65 33 35 ar
66 36 37 ar
67 36 38 1
68 37 39 1
69 38 77 1
70 38 78 1
71 38 79 1
72 39 40 2
73 39 41 1
74 41 42 1
75 41 80 1
76 42 43 2
77 42 44 1
78 44 45 1
79 45 81 1
80 45 82 1
81 45 83 1
82 46 47 ar
83 46 48 1
84 47 49 1
85 48 84 1
86 48 85 1
87 48 86 1
88 49 50 1
89 49 87 1
90 49 88 1
91 50 89 1
92 50 90 1
93 50 91 1
94 51 52 ar
95 51 53 1
96 52 54 1
97 53 92 1
98 53 93 1
99 53 94 1
100 54 55 1
101 54 65 1
102 55 66 1
103 55 67 1
@<TRIPOS>SUBSTRUCTURE
1	CHL1	1	GROUP	1 ****	CHL
